Version 4.1
SHEET 1 880 680
SYMBOL OpAmps\\OP27 112 80 R0
SYMATTR InstName U1
